LTspice 24.1.4 for Windows
Circuit: C:\Users\capta\Downloads\g_amp\g_amp.net
Start Time: Mon Nov 24 00:12:58 2025
solver = Normal
Maximum thread count: 20
tnom = 27
temp = 27
method = trap
Early termination of direct N-R iteration.
Direct Newton iteration failed to find .op point.  (Use ".option noopiter" to skip.)
Starting Gmin stepping
Gmin = 10
vernier = 0.5
vernier = 0.25
vernier = 0.125
Gmin = 5.5165
vernier = 0.0625
vernier = 0.03125
vernier = 0.015625
vernier = 0.0078125
Gmin = 5.49501
vernier = 0.00390625
vernier = 0.00195312
vernier = 0.000976562
vernier = 0.000488281
Gmin = 5.50104
Gmin = 0
Gmin stepping failed

Starting source stepping with srcstepmethod=0
Source Step = 3.0303%
Source Step = 21.2121%
Source Step = 28.7879%
Source Step = 36.3636%
Source Step = 43.9394%
Source Step = 51.5152%
vernier = 0.375
Source Step = 60.2273%
Source Step = 71.5909%
Source Step = 82.9545%
Source Step = 94.3182%
Source stepping succeeded in finding the operating point.

Total elapsed time: 0.551 seconds.

Files loaded:
C:\Users\capta\Downloads\g_amp\g_amp.net
C:\Users\capta\Downloads\g_amp\tl072.lib

